/*--------------------------------*- C++ -*----------------------------------*\
| =========                 |
| \      /  F ield         | OpenFOAM: The Open Source CFD Toolbox
|  \    /   O peration     | Website:  https://openfoam.org
|   \  /    A nd           | Version:  7
|    \/     M anipulation  |
\*---------------------------------------------------------------------------*/
FoamFile
{
	version     2.0;
	format      ascii;
	class       dictionary;
	location    "chemkin";
	object      transportProperties;
}
// * * * * * * * * * * * * * * * * * * * * * * * * * * * * * * * * * * * * * //
".*"
{
    transport
    {
        As   1.512e-06;
        Ts   120.0;
    }
}
"AR"
{
    transport
    {
        As   2.2112191621655153e-06;
        Ts   246.7530054732587;
    }
}
"HE"
{
    transport
    {
        As   1.6723728617189037e-06;
        Ts   208.469208746034;
    }
}
"H"
{
    transport
    {
        As   9.203312244138269e-07;
        Ts   251.35773663577763;
    }
}
"H2"
{
    transport
    {
        As   7.673552744274001e-07;
        Ts   214.25927241969913;
    }
}
"O"
{
    transport
    {
        As   2.1964989089997343e-06;
        Ts   223.08152928568907;
    }
}
"O2"
{
    transport
    {
        As   1.8898736337524542e-06;
        Ts   232.93791315219423;
    }
}
"OH"
{
    transport
    {
        As   2.2646361057579063e-06;
        Ts   223.08152252457862;
    }
}
"H2O"
{
    transport
    {
        As   2.288975623220366e-06;
        Ts   987.8916345313922;
    }
}
"N2"
{
    transport
    {
        As   1.6328417863639792e-06;
        Ts   229.0125636830343;
    }
}
"HO2"
{
    transport
    {
        As   1.919410203941711e-06;
        Ts   232.93792536979046;
    }
}
"H2O2"
{
    transport
    {
        As   1.9484993852358443e-06;
        Ts   232.9382496131763;
    }
}
"CO"
{
    transport
    {
        As   1.6056641303061624e-06;
        Ts   229.227230703457;
    }
}
"CO2"
{
    transport
    {
        As   1.7138690476973138e-06;
        Ts   318.5771098647068;
    }
}
"CH2O"
{
    transport
    {
        As   1.4942683661907553e-06;
        Ts   547.4699731022122;
    }
}
"HCO"
{
    transport
    {
        As   1.468972279985173e-06;
        Ts   547.4699733020949;
    }
}
"CH3OH"
{
    transport
    {
        As   1.5147079612140669e-06;
        Ts   531.6423970721028;
    }
}
"CH2OH"
{
    transport
    {
        As   1.4571387640313788e-06;
        Ts   513.0322010561547;
    }
}
"CH3O"
{
    transport
    {
        As   1.4571387640313788e-06;
        Ts   513.0322010561547;
    }
}
"CH3O2"
{
    transport
    {
        As   1.8351452324850727e-06;
        Ts   531.6423927103782;
    }
}
"CH4"
{
    transport
    {
        As   1.1027689714136545e-06;
        Ts   249.37779951740328;
    }
}
"CH3"
{
    transport
    {
        As   1.0352617658226562e-06;
        Ts   250.80227738260552;
    }
}
"CH2"
{
    transport
    {
        As   9.99955922805933e-07;
        Ts   250.8022765528542;
    }
}
"CH2(S)"
{
    transport
    {
        As   9.99955922805933e-07;
        Ts   250.8022765528542;
    }
}
"C2H6"
{
    transport
    {
        As   1.0589032902948924e-06;
        Ts   321.2990721534028;
    }
}
"C2H5O2"
{
    transport
    {
        As   1.4147132241542518e-06;
        Ts   520.760623359134;
    }
}
"C2H5"
{
    transport
    {
        As   1.041003843741903e-06;
        Ts   321.2990728372248;
    }
}
"C2H4"
{
    transport
    {
        As   1.5884332086709923e-06;
        Ts   314.25529841887897;
    }
}
"C2H3"
{
    transport
    {
        As   1.3649559811939936e-06;
        Ts   335.4283032057445;
    }
}
"C2H2"
{
    transport
    {
        As   1.3392786176370824e-06;
        Ts   335.42830173563425;
    }
}
"CH2CHO"
{
    transport
    {
        As   1.469849996126867e-06;
        Ts   487.5078198230076;
    }
}
"CH2CO"
{
    transport
    {
        As   1.452538046948007e-06;
        Ts   487.5078198465164;
    }
}
"HCCO"
{
    transport
    {
        As   3.932925828302339e-06;
        Ts   254.17578117241104;
    }
}
"NC3H7"
{
    transport
    {
        As   1.0212169499490642e-06;
        Ts   367.07104032137306;
    }
}
"C3H6"
{
    transport
    {
        As   1.360990264735416e-06;
        Ts   370.83121279493986;
    }
}
"C3H5-A"
{
    transport
    {
        As   1.29190013896887e-06;
        Ts   377.88247792673934;
    }
}
"C3H5O"
{
    transport
    {
        As   1.1510074725322777e-06;
        Ts   463.8558554197701;
    }
}
"C3H4-A"
{
    transport
    {
        As   1.2325368375295914e-06;
        Ts   385.53547592330057;
    }
}
"NC3H7O2"
{
    transport
    {
        As   1.2212865573231658e-06;
        Ts   536.1955787754738;
    }
}
"C2H3CHO"
{
    transport
    {
        As   1.086628165061342e-06;
        Ts   542.4956251305134;
    }
}
"NC7H16"
{
    transport
    {
        As   9.021855012816141e-07;
        Ts   510.12783098411194;
    }
}
"C7H15"
{
    transport
    {
        As   8.97636319302991e-07;
        Ts   510.12783108942193;
    }
}
"C7H15O2"
{
    transport
    {
        As   1.0053303339677605e-06;
        Ts   610.3694806277107;
    }
}
"C7H14OOH"
{
    transport
    {
        As   1.0053303339677605e-06;
        Ts   610.3694806277107;
    }
}
"C7H14"
{
    transport
    {
        As   9.164861139487178e-07;
        Ts   508.382787358103;
    }
}
"C7H14OOHO2"
{
    transport
    {
        As   8.548504721071608e-07;
        Ts   649.5540179459563;
    }
}
"NC7KET"
{
    transport
    {
        As   9.99530616680339e-07;
        Ts   630.9438266924736;
    }
}
"C7H14O"
{
    transport
    {
        As   9.463722101745925e-07;
        Ts   560.7206990223772;
    }
}
"NC3H7CHO"
{
    transport
    {
        As   1.1970778849043864e-06;
        Ts   546.7453094472655;
    }
}
"NC3H7CO"
{
    transport
    {
        As   1.0972443857933093e-06;
        Ts   491.8931860130166;
    }
}
"NO"
{
    transport
    {
        As   1.6899662101124868e-06;
        Ts   229.00133312341666;
    }
}
"N2O"
{
    transport
    {
        As   1.6630270559722422e-06;
        Ts   309.67020422578423;
    }
}
"NO2"
{
    transport
    {
        As   2.0618179093372093e-06;
        Ts   286.08036021200127;
    }
}
"HNO"
{
    transport
    {
        As   1.8055752527280025e-06;
        Ts   236.99098309522546;
    }
}
"HNO2"
{
    transport
    {
        As   2.0842834334184627e-06;
        Ts   286.08037913145523;
    }
}
"HONO"
{
    transport
    {
        As   2.0842834334184627e-06;
        Ts   286.08037913145523;
    }
}
"HONO2"
{
    transport
    {
        As   2.3341439870875678e-06;
        Ts   364.1780629668454;
    }
}
"N2H2"
{
    transport
    {
        As   1.602293260727019e-06;
        Ts   220.65360135195098;
    }
}
"H2NN"
{
    transport
    {
        As   1.602293260727019e-06;
        Ts   220.65360135195098;
    }
}
"NH2OH"
{
    transport
    {
        As   1.8633352244249563e-06;
        Ts   236.99100564539097;
    }
}
"HNOH"
{
    transport
    {
        As   1.8346825540353268e-06;
        Ts   236.99099416077962;
    }
}
"NH3"
{
    transport
    {
        As   1.7234070385338656e-06;
        Ts   617.4659339428453;
    }
}
"N2H4"
{
    transport
    {
        As   1.1753556834770473e-06;
        Ts   289.5869043111468;
    }
}
"N"
{
    transport
    {
        As   1.4512608841213516e-06;
        Ts   220.65344700352864;
    }
}
"NO3"
{
    transport
    {
        As   2.315399141266092e-06;
        Ts   364.1780799880824;
    }
}
"NH"
{
    transport
    {
        As   2.291505370782651e-06;
        Ts   223.08152326849444;
    }
}
"NNH"
{
    transport
    {
        As   1.5751720739525724e-06;
        Ts   220.65357678473117;
    }
}
"NH2"
{
    transport
    {
        As   2.3671736841746436e-06;
        Ts   223.08150707577505;
    }
}
"H2NO"
{
    transport
    {
        As   1.8346825540353268e-06;
        Ts   236.99099416077962;
    }
}
"N2H3"
{
    transport
    {
        As   1.3639595456265476e-06;
        Ts   286.0801632330882;
    }
}
