/*--------------------------------*- C++ -*----------------------------------*\
| =========                 |
| \      /  F ield         | OpenFOAM: The Open Source CFD Toolbox
|  \    /   O peration     | Website:  https://openfoam.org
|   \  /    A nd           | Version:  7
|    \/     M anipulation  |
\*---------------------------------------------------------------------------*/
FoamFile
{
	version     2.0;
	format      ascii;
	class       dictionary;
	location    "chemkin";
	object      transportProperties;
}
// * * * * * * * * * * * * * * * * * * * * * * * * * * * * * * * * * * * * * //
".*"
{
    transport
    {
        As   1.512e-06;
        Ts   120.0;
    }
}
"AR"
{
    transport
    {
        As   2.2112191626551825e-06;
        Ts   246.75300593814188;
    }
}
"HE"
{
    transport
    {
        As   1.672372860770264e-06;
        Ts   208.46920762045713;
    }
}
"H"
{
    transport
    {
        As   9.203312242852817e-07;
        Ts   251.3577363497167;
    }
}
"H2"
{
    transport
    {
        As   7.673552732488507e-07;
        Ts   214.25926929247007;
    }
}
"O"
{
    transport
    {
        As   2.1964989080598902e-06;
        Ts   223.08152841881773;
    }
}
"O2"
{
    transport
    {
        As   1.8898736343274424e-06;
        Ts   232.93791378104132;
    }
}
"OH"
{
    transport
    {
        As   2.264636106799668e-06;
        Ts   223.08152348942383;
    }
}
"H2O"
{
    transport
    {
        As   2.2889756230063737e-06;
        Ts   987.8916342503162;
    }
}
"N2"
{
    transport
    {
        As   1.63284178547976e-06;
        Ts   229.01256258413494;
    }
}
"HO2"
{
    transport
    {
        As   1.919410209124376e-06;
        Ts   232.9379309746181;
    }
}
"H2O2"
{
    transport
    {
        As   1.9484993829883385e-06;
        Ts   232.93824720282888;
    }
}
"CO"
{
    transport
    {
        As   1.6056641314777003e-06;
        Ts   229.22723222252841;
    }
}
"CO2"
{
    transport
    {
        As   1.713869047936918e-06;
        Ts   318.5771101699248;
    }
}
"CH2O"
{
    transport
    {
        As   1.4942683662522545e-06;
        Ts   547.4699732008138;
    }
}
"HCO"
{
    transport
    {
        As   1.4689722799478646e-06;
        Ts   547.4699732390338;
    }
}
"CH3OH"
{
    transport
    {
        As   1.514707961267872e-06;
        Ts   531.642397160669;
    }
}
"CH2OH"
{
    transport
    {
        As   1.4571387639315938e-06;
        Ts   513.0322008887322;
    }
}
"CH3O"
{
    transport
    {
        As   1.4571387639315938e-06;
        Ts   513.0322008887322;
    }
}
"CH3O2"
{
    transport
    {
        As   1.8351452326453247e-06;
        Ts   531.6423929246264;
    }
}
"CH4"
{
    transport
    {
        As   1.1027689704343402e-06;
        Ts   249.37779764379243;
    }
}
"CH3"
{
    transport
    {
        As   1.0352617664561106e-06;
        Ts   250.8022786911221;
    }
}
"CH2"
{
    transport
    {
        As   9.999559225492119e-07;
        Ts   250.80227601687517;
    }
}
"CH2(S)"
{
    transport
    {
        As   9.999559225492119e-07;
        Ts   250.80227601687517;
    }
}
"C2H6"
{
    transport
    {
        As   1.0589032899159686e-06;
        Ts   321.2990713699409;
    }
}
"C2H5O2"
{
    transport
    {
        As   1.4147132243159618e-06;
        Ts   520.7606236404805;
    }
}
"C2H5"
{
    transport
    {
        As   1.0410038435471766e-06;
        Ts   321.299072417541;
    }
}
"C2H4"
{
    transport
    {
        As   1.5884332093489744e-06;
        Ts   314.25529933189193;
    }
}
"C2H3"
{
    transport
    {
        As   1.364955981028279e-06;
        Ts   335.4283029422545;
    }
}
"C2H2"
{
    transport
    {
        As   1.3392786182728896e-06;
        Ts   335.4283027888179;
    }
}
"CH2CHO"
{
    transport
    {
        As   1.4698499961951297e-06;
        Ts   487.50781993169835;
    }
}
"CH2CO"
{
    transport
    {
        As   1.4525380469422134e-06;
        Ts   487.50781983385696;
    }
}
"HCCO"
{
    transport
    {
        As   3.932925821293972e-06;
        Ts   254.17577743945952;
    }
}
"NC3H7"
{
    transport
    {
        As   1.021216950194508e-06;
        Ts   367.0710408717111;
    }
}
"C3H6"
{
    transport
    {
        As   1.3609902646037215e-06;
        Ts   370.8312125680404;
    }
}
"C3H5-A"
{
    transport
    {
        As   1.291900139028731e-06;
        Ts   377.8824780330869;
    }
}
"C3H5O"
{
    transport
    {
        As   1.1510074725054655e-06;
        Ts   463.85585537424384;
    }
}
"C3H4-A"
{
    transport
    {
        As   1.232536837688059e-06;
        Ts   385.53547621991567;
    }
}
"NC3H7O2"
{
    transport
    {
        As   1.2212865573543784e-06;
        Ts   536.1955788366524;
    }
}
"C2H3CHO"
{
    transport
    {
        As   1.0866281651778082e-06;
        Ts   542.495625396195;
    }
}
"NC7H16"
{
    transport
    {
        As   9.021855012721866e-07;
        Ts   510.1278309579202;
    }
}
"C7H15"
{
    transport
    {
        As   8.976363192377572e-07;
        Ts   510.12783091370164;
    }
}
"C7H15O2"
{
    transport
    {
        As   1.005330333957334e-06;
        Ts   610.3694806024512;
    }
}
"C7H14OOH"
{
    transport
    {
        As   1.005330333957334e-06;
        Ts   610.3694806024512;
    }
}
"C7H14"
{
    transport
    {
        As   9.164861139688396e-07;
        Ts   508.38278740834585;
    }
}
"C7H14OOHO2"
{
    transport
    {
        As   8.548504721162741e-07;
        Ts   649.5540179742536;
    }
}
"NC7KET"
{
    transport
    {
        As   9.99530616652761e-07;
        Ts   630.9438266228996;
    }
}
"C7H14O"
{
    transport
    {
        As   9.463722101371692e-07;
        Ts   560.7206989241107;
    }
}
"NC3H7CHO"
{
    transport
    {
        As   1.1970778848113796e-06;
        Ts   546.7453092556882;
    }
}
"NC3H7CO"
{
    transport
    {
        As   1.0972443858042894e-06;
        Ts   491.89318603938494;
    }
}
"NO"
{
    transport
    {
        As   1.6899662073202325e-06;
        Ts   229.0013297448052;
    }
}
"N2O"
{
    transport
    {
        As   1.6630270558784003e-06;
        Ts   309.6702041005887;
    }
}
"NO2"
{
    transport
    {
        As   2.06181791075455e-06;
        Ts   286.080361690522;
    }
}
"HNO"
{
    transport
    {
        As   1.805575254784261e-06;
        Ts   236.99098546756957;
    }
}
"HNO2"
{
    transport
    {
        As   2.084283433494421e-06;
        Ts   286.0803791987964;
    }
}
"HONO"
{
    transport
    {
        As   2.084283433494421e-06;
        Ts   286.0803791987964;
    }
}
"HONO2"
{
    transport
    {
        As   2.3341439874335253e-06;
        Ts   364.17806330154997;
    }
}
"N2H2"
{
    transport
    {
        As   1.6022932567313801e-06;
        Ts   220.6535962274636;
    }
}
"H2NN"
{
    transport
    {
        As   1.6022932567313801e-06;
        Ts   220.6535962274636;
    }
}
"NH2OH"
{
    transport
    {
        As   1.863335224560566e-06;
        Ts   236.99100578911214;
    }
}
"HNOH"
{
    transport
    {
        As   1.8346825547749416e-06;
        Ts   236.99099497894716;
    }
}
"NH3"
{
    transport
    {
        As   1.7234070385783772e-06;
        Ts   617.4659340008054;
    }
}
"N2H4"
{
    transport
    {
        As   1.1753556835966247e-06;
        Ts   289.58690453277285;
    }
}
"N"
{
    transport
    {
        As   1.4512608843839435e-06;
        Ts   220.65344738606657;
    }
}
"NO3"
{
    transport
    {
        As   2.3153991418762535e-06;
        Ts   364.17808058643004;
    }
}
"NH"
{
    transport
    {
        As   2.2915053690253783e-06;
        Ts   223.08152167104512;
    }
}
"NNH"
{
    transport
    {
        As   1.575172074599156e-06;
        Ts   220.65357760734676;
    }
}
"NH2"
{
    transport
    {
        As   2.3671736877826588e-06;
        Ts   223.08151021219743;
    }
}
"H2NO"
{
    transport
    {
        As   1.8346825547749416e-06;
        Ts   236.99099497894716;
    }
}
"N2H3"
{
    transport
    {
        As   1.3639595461492751e-06;
        Ts   286.08016404554405;
    }
}
